# generated using pymatgen
data_Rh(CO)3
_symmetry_space_group_name_H-M   'P 1'
_cell_length_a   9.24000000
_cell_length_b   12.02000000
_cell_length_c   17.74000000
_cell_angle_alpha   90.00000000
_cell_angle_beta   90.01000000
_cell_angle_gamma   90.00000000
_symmetry_Int_Tables_number   1
_chemical_formula_structural   Rh(CO)3
_chemical_formula_sum   'Rh16 C48 O48'
_cell_volume   1970.28952199
_cell_formula_units_Z   16
loop_
 _symmetry_equiv_pos_site_id
 _symmetry_equiv_pos_as_xyz
  1  'x, y, z'
loop_
 _atom_site_type_symbol
 _atom_site_label
 _atom_site_symmetry_multiplicity
 _atom_site_fract_x
 _atom_site_fract_y
 _atom_site_fract_z
 _atom_site_occupancy
  Rh  Rh0  1  0.80300000  0.12960000  0.11700000  1.0
  Rh  Rh1  1  0.19700000  0.62960000  0.38300000  1.0
  Rh  Rh2  1  0.19700000  0.87040000  0.88300000  1.0
  Rh  Rh3  1  0.80300000  0.37040000  0.61700000  1.0
  Rh  Rh4  1  0.72980000  0.25550000  0.24390000  1.0
  Rh  Rh5  1  0.27020000  0.75550000  0.25610000  1.0
  Rh  Rh6  1  0.27020000  0.74450000  0.75610000  1.0
  Rh  Rh7  1  0.72980000  0.24450000  0.74390000  1.0
  Rh  Rh8  1  0.82980000  0.35370000  0.11720000  1.0
  Rh  Rh9  1  0.17020000  0.85370000  0.38280000  1.0
  Rh  Rh10  1  0.17020000  0.64630000  0.88280000  1.0
  Rh  Rh11  1  0.82980000  0.14630000  0.61720000  1.0
  Rh  Rh12  1  0.56000000  0.25930000  0.11900000  1.0
  Rh  Rh13  1  0.44000000  0.75930000  0.38100000  1.0
  Rh  Rh14  1  0.44000000  0.74070000  0.88100000  1.0
  Rh  Rh15  1  0.56000000  0.24070000  0.61900000  1.0
  C  C16  1  0.80890000  0.35860000  0.30760000  1.0
  C  C17  1  0.19110000  0.85860000  0.19240000  1.0
  C  C18  1  0.19110000  0.64140000  0.69240000  1.0
  C  C19  1  0.80890000  0.14140000  0.80760000  1.0
  C  C20  1  0.98250000  0.12050000  0.04890000  1.0
  C  C21  1  0.01750000  0.62050000  0.45110000  1.0
  C  C22  1  0.01750000  0.87950000  0.95110000  1.0
  C  C23  1  0.98250000  0.37950000  0.54890000  1.0
  C  C24  1  0.40570000  0.15010000  0.13420000  1.0
  C  C25  1  0.59430000  0.65010000  0.36580000  1.0
  C  C26  1  0.59430000  0.84990000  0.86580000  1.0
  C  C27  1  0.40570000  0.34990000  0.63420000  1.0
  C  C28  1  0.88320000  0.15360000  0.21520000  1.0
  C  C29  1  0.11680000  0.65360000  0.28480000  1.0
  C  C30  1  0.11680000  0.84640000  0.78480000  1.0
  C  C31  1  0.88320000  0.34640000  0.71520000  1.0
  C  C32  1  0.83230000  0.37670000  0.00980000  1.0
  C  C33  1  0.16770000  0.87670000  0.49020000  1.0
  C  C34  1  0.16770000  0.62330000  0.99020000  1.0
  C  C35  1  0.83230000  0.12330000  0.50980000  1.0
  C  C36  1  0.56420000  0.35920000  0.22170000  1.0
  C  C37  1  0.43580000  0.85920000  0.27830000  1.0
  C  C38  1  0.43580000  0.64080000  0.77830000  1.0
  C  C39  1  0.56420000  0.14080000  0.72170000  1.0
  C  C40  1  0.03540000  0.36270000  0.14590000  1.0
  C  C41  1  0.96460000  0.86270000  0.35410000  1.0
  C  C42  1  0.96460000  0.63730000  0.85410000  1.0
  C  C43  1  0.03540000  0.13730000  0.64590000  1.0
  C  C44  1  0.77150000  0.51620000  0.13940000  1.0
  C  C45  1  0.22850000  0.01620000  0.36060000  1.0
  C  C46  1  0.22850000  0.48380000  0.86060000  1.0
  C  C47  1  0.77150000  0.98380000  0.63940000  1.0
  C  C48  1  0.64400000  0.15530000  0.31920000  1.0
  C  C49  1  0.35600000  0.65530000  0.18080000  1.0
  C  C50  1  0.35600000  0.84470000  0.68080000  1.0
  C  C51  1  0.64400000  0.34470000  0.81920000  1.0
  C  C52  1  0.46010000  0.35540000  0.06580000  1.0
  C  C53  1  0.53990000  0.85540000  0.43420000  1.0
  C  C54  1  0.53990000  0.64460000  0.93420000  1.0
  C  C55  1  0.46010000  0.14460000  0.56580000  1.0
  C  C56  1  0.64700000  0.16520000  0.04390000  1.0
  C  C57  1  0.35300000  0.66520000  0.45610000  1.0
  C  C58  1  0.35300000  0.83480000  0.95610000  1.0
  C  C59  1  0.64700000  0.33480000  0.54390000  1.0
  C  C60  1  0.73760000  0.96320000  0.11150000  1.0
  C  C61  1  0.26240000  0.46320000  0.38850000  1.0
  C  C62  1  0.26240000  0.03680000  0.88850000  1.0
  C  C63  1  0.73760000  0.53680000  0.61150000  1.0
  O  O64  1  0.32670000  0.09340000  0.15840000  1.0
  O  O65  1  0.67330000  0.59340000  0.34160000  1.0
  O  O66  1  0.67330000  0.90660000  0.84160000  1.0
  O  O67  1  0.32670000  0.40660000  0.65840000  1.0
  O  O68  1  0.47530000  0.42690000  0.24520000  1.0
  O  O69  1  0.52470000  0.92690000  0.25480000  1.0
  O  O70  1  0.52470000  0.57310000  0.75480000  1.0
  O  O71  1  0.47530000  0.07310000  0.74520000  1.0
  O  O72  1  0.64010000  0.15120000  0.97000000  1.0
  O  O73  1  0.35990000  0.65120000  0.53000000  1.0
  O  O74  1  0.35990000  0.84880000  0.03000000  1.0
  O  O75  1  0.64010000  0.34880000  0.47000000  1.0
  O  O76  1  0.99670000  0.08910000  0.25960000  1.0
  O  O77  1  0.00330000  0.58910000  0.24040000  1.0
  O  O78  1  0.00330000  0.91090000  0.74040000  1.0
  O  O79  1  0.99670000  0.41090000  0.75960000  1.0
  O  O80  1  0.72440000  0.60230000  0.15200000  1.0
  O  O81  1  0.27560000  0.10230000  0.34800000  1.0
  O  O82  1  0.27560000  0.39770000  0.84800000  1.0
  O  O83  1  0.72440000  0.89770000  0.65200000  1.0
  O  O84  1  0.06690000  0.11270000  0.01760000  1.0
  O  O85  1  0.93310000  0.61270000  0.48240000  1.0
  O  O86  1  0.93310000  0.88730000  0.98240000  1.0
  O  O87  1  0.06690000  0.38730000  0.51760000  1.0
  O  O88  1  0.73780000  0.87010000  0.12710000  1.0
  O  O89  1  0.26220000  0.37010000  0.37290000  1.0
  O  O90  1  0.26220000  0.12990000  0.87290000  1.0
  O  O91  1  0.73780000  0.62990000  0.62710000  1.0
  O  O92  1  0.38340000  0.40770000  0.02090000  1.0
  O  O93  1  0.61660000  0.90770000  0.47910000  1.0
  O  O94  1  0.61660000  0.59230000  0.97910000  1.0
  O  O95  1  0.38340000  0.09230000  0.52090000  1.0
  O  O96  1  0.87610000  0.36940000  0.94120000  1.0
  O  O97  1  0.12390000  0.86940000  0.55880000  1.0
  O  O98  1  0.12390000  0.63060000  0.05880000  1.0
  O  O99  1  0.87610000  0.13060000  0.44120000  1.0
  O  O100  1  0.12820000  0.37820000  0.16300000  1.0
  O  O101  1  0.87180000  0.87820000  0.33700000  1.0
  O  O102  1  0.87180000  0.62180000  0.83700000  1.0
  O  O103  1  0.12820000  0.12180000  0.66300000  1.0
  O  O104  1  0.89300000  0.39590000  0.35940000  1.0
  O  O105  1  0.10700000  0.89590000  0.14060000  1.0
  O  O106  1  0.10700000  0.60410000  0.64060000  1.0
  O  O107  1  0.89300000  0.10410000  0.85940000  1.0
  O  O108  1  0.57470000  0.12500000  0.36390000  1.0
  O  O109  1  0.42530000  0.62500000  0.13610000  1.0
  O  O110  1  0.42530000  0.87500000  0.63610000  1.0
  O  O111  1  0.57470000  0.37500000  0.86390000  1.0
