# generated using pymatgen
data_Rh2O3
_symmetry_space_group_name_H-M   'P 1'
_cell_length_a   5.09202662
_cell_length_b   5.09202662
_cell_length_c   5.45000000
_cell_angle_alpha   62.15000000
_cell_angle_beta   62.15000000
_cell_angle_gamma   60.00000000
_symmetry_Int_Tables_number   1
_chemical_formula_structural   Rh2O3
_chemical_formula_sum   'Rh4 O6'
_cell_volume   103.04736722
_cell_formula_units_Z   2
loop_
 _symmetry_equiv_pos_site_id
 _symmetry_equiv_pos_as_xyz
  1  'x, y, z'
loop_
 _atom_type_symbol
 _atom_type_oxidation_number
  Rh3+  3.0
  O2-  -2.0
loop_
 _atom_site_type_symbol
 _atom_site_label
 _atom_site_symmetry_multiplicity
 _atom_site_fract_x
 _atom_site_fract_y
 _atom_site_fract_z
 _atom_site_occupancy
  Rh3+  Rh0  1  0.10000000  0.10000000  0.70000000  1.0
  Rh3+  Rh1  1  0.90000000  0.90000000  0.30000000  1.0
  Rh3+  Rh2  1  0.60000000  0.60000000  0.20000000  1.0
  Rh3+  Rh3  1  0.40000000  0.40000000  0.80000000  1.0
  O2-  O4  1  0.80000000  0.70000000  0.25000000  1.0
  O2-  O5  1  0.25000000  0.80000000  0.25000000  1.0
  O2-  O6  1  0.70000000  0.25000000  0.25000000  1.0
  O2-  O7  1  0.20000000  0.30000000  0.75000000  1.0
  O2-  O8  1  0.75000000  0.20000000  0.75000000  1.0
  O2-  O9  1  0.30000000  0.75000000  0.75000000  1.0
